Version 4
SHEET 1 1452 680
WIRE -224 -16 -320 -16
WIRE -48 -16 -224 -16
WIRE 400 -16 -48 -16
WIRE 752 -16 400 -16
WIRE -96 64 -160 64
WIRE 352 64 288 64
WIRE 704 64 640 64
WIRE 976 80 880 80
WIRE 976 96 976 80
WIRE -48 144 -48 80
WIRE -48 144 -160 144
WIRE 400 144 400 80
WIRE 400 144 288 144
WIRE 752 144 752 80
WIRE 752 144 640 144
WIRE -48 176 -48 144
WIRE 880 176 880 80
WIRE 880 176 -48 176
WIRE -320 208 -320 -16
WIRE -224 208 -224 -16
WIRE 400 208 400 144
WIRE 864 208 400 208
WIRE 864 224 864 208
WIRE 976 224 976 176
WIRE 976 224 944 224
WIRE 992 224 976 224
WIRE 752 272 752 144
WIRE 1072 272 1072 224
WIRE 1072 272 752 272
WIRE -48 288 -48 176
WIRE 400 288 400 208
WIRE 752 288 752 272
WIRE -96 368 -160 368
WIRE 352 368 288 368
WIRE 704 368 640 368
WIRE -320 448 -320 288
WIRE -224 448 -224 272
WIRE -224 448 -320 448
WIRE -160 448 -224 448
WIRE -48 448 -48 384
WIRE -48 448 -160 448
WIRE 288 448 -48 448
WIRE 400 448 400 384
WIRE 400 448 288 448
WIRE 640 448 400 448
WIRE 752 448 752 384
WIRE 752 448 640 448
FLAG 640 448 0
SYMBOL TK72E12N1 -96 -16 R0
SYMATTR InstName U1
SYMBOL TK72E12N1 352 -16 R0
SYMATTR InstName U2
SYMBOL TK72E12N1 -96 288 R0
SYMATTR InstName U3
SYMBOL TK72E12N1 352 288 R0
SYMATTR InstName U4
SYMBOL TK72E12N1 704 -16 R0
SYMATTR InstName U5
SYMBOL TK72E12N1 704 288 R0
SYMATTR InstName U6
SYMBOL ind 960 80 R0
SYMATTR InstName L1
SYMATTR Value 0.1m
SYMATTR SpiceLine Rser=0.1
SYMBOL ind 848 240 R270
WINDOW 0 32 56 VTop 2
WINDOW 3 5 56 VBottom 2
SYMATTR InstName L2
SYMATTR Value 0.1m
SYMATTR SpiceLine Rser=0.1
SYMBOL ind 1088 208 R90
WINDOW 0 5 56 VBottom 2
WINDOW 3 32 56 VTop 2
SYMATTR InstName L3
SYMATTR Value 0.1m
SYMATTR SpiceLine Rser=0.1
SYMBOL voltage -160 48 R0
WINDOW 123 0 0 Left 2
WINDOW 39 0 0 Left 2
SYMATTR InstName V1
SYMATTR Value PWL file=C:\Users\YASHIO\Desktop\PWMsineWave\wave1.txt
SYMBOL voltage -320 192 R0
WINDOW 123 0 0 Left 2
WINDOW 39 0 0 Left 2
SYMATTR InstName V7
SYMATTR Value 48
SYMBOL voltage -160 352 R0
WINDOW 123 0 0 Left 2
WINDOW 39 0 0 Left 2
SYMATTR InstName V2
SYMATTR Value PWL file=C:\Users\YASHIO\Desktop\PWMsineWave\wave2.txt
SYMBOL voltage 288 48 R0
WINDOW 123 0 0 Left 2
WINDOW 39 0 0 Left 2
SYMATTR InstName V3
SYMATTR Value PWL file=C:\Users\YASHIO\Desktop\PWMsineWave\wave3.txt
SYMBOL voltage 288 352 R0
WINDOW 123 0 0 Left 2
WINDOW 39 0 0 Left 2
SYMATTR InstName V4
SYMATTR Value PWL file=C:\Users\YASHIO\Desktop\PWMsineWave\wave4.txt
SYMBOL voltage 640 48 R0
WINDOW 123 0 0 Left 2
WINDOW 39 0 0 Left 2
SYMATTR InstName V5
SYMATTR Value PWL file=C:\Users\YASHIO\Desktop\PWMsineWave\wave5.txt
SYMBOL voltage 640 352 R0
WINDOW 123 0 0 Left 2
WINDOW 39 0 0 Left 2
SYMATTR InstName V6
SYMATTR Value PWL file=C:\Users\YASHIO\Desktop\PWMsineWave\wave6.txt
SYMBOL cap -240 208 R0
SYMATTR InstName C1
SYMATTR Value 1000u
TEXT 40 -112 Left 2 !.include TK72E12N1.lib
TEXT -354 472 Left 2 !.tran 0 36m 0 0.1u
